LTspice 24.1.9 for Windows
Circuit: C:\users\mahrufhossain\Documents\LTspice\ideal_oscillations.net
Start Time: Sun Jul 13 23:22:56 2025
solver = Normal
Maximum thread count: 8
tnom = 27
temp = 27
method = trap
Direct Newton iteration for .op point succeeded.
Total elapsed time: 0.031 seconds.

Files loaded:
C:\users\mahrufhossain\Documents\LTspice\ideal_oscillations.net

