LTspice 24.1.9 for Windows
Circuit: Z:\home\mahrufhossain\LTspice\transformer_coupled_class_B.net
Start Time: Thu Aug 14 13:15:08 2025
solver = Normal
Maximum thread count: 8
tnom = 27
temp = 27
method = trap
Direct Newton iteration for .op point succeeded.
Total elapsed time: 0.061 seconds.

Files loaded:
Z:\home\mahrufhossain\LTspice\transformer_coupled_class_B.net
C:\users\mahrufhossain\AppData\Local\LTspice\lib\cmp\standard.bjt
Z:\home\mahrufhossain\LTspice\BD135.lib

