LTspice 24.1.9 for Windows
Circuit: C:\users\mahrufhossain\Documents\LTspice\rc_differentiator.net
Start Time: Sat Jul  5 15:24:24 2025
solver = Normal
Maximum thread count: 8
tnom = 27
temp = 27
method = trap
Direct Newton iteration for .op point succeeded.
Total elapsed time: 0.782 seconds.

Files loaded:
C:\users\mahrufhossain\Documents\LTspice\rc_differentiator.net

