LTspice 24.1.9 for Windows
Circuit: C:\users\mahrufhossain\Documents\LTspice\non_inverting_schmitt_trigger_without_vref.net
Start Time: Tue Jul 15 15:41:17 2025
solver = Normal
Maximum thread count: 8
tnom = 27
temp = 27
method = trap
Direct Newton iteration for .op point succeeded.
Total elapsed time: 0.030 seconds.

Files loaded:
C:\users\mahrufhossain\Documents\LTspice\non_inverting_schmitt_trigger_without_vref.net
C:\users\mahrufhossain\Documents\LTspice\LM741.lib

