LTspice 24.1.9 for Windows
Circuit: C:\users\mahrufhossain\Documents\LTspice\singlestageamp.net
Start Time: Sun Jul 13 23:32:52 2025
solver = Normal
Maximum thread count: 8
tnom = 27
temp = 27
method = trap
Direct Newton iteration for .op point succeeded.
Total elapsed time: 0.029 seconds.

Files loaded:
C:\users\mahrufhossain\Documents\LTspice\singlestageamp.net
C:\users\mahrufhossain\AppData\Local\LTspice\lib\cmp\standard.bjt
C:\users\mahrufhossain\Documents\LTspice\BD135.lib

