LTspice 24.1.9 for Windows
Circuit: C:\users\mahrufhossain\Documents\LTspice\RC_oscillator_OPAMP.net
Start Time: Thu Jul 17 22:57:34 2025
solver = Normal
Maximum thread count: 8
tnom = 27
temp = 27
method = trap
Direct Newton iteration for .op point succeeded.
Total elapsed time: 0.049 seconds.

Files loaded:
C:\users\mahrufhossain\Documents\LTspice\RC_oscillator_OPAMP.net
C:\users\mahrufhossain\Documents\LTspice\LM741.lib

