LTspice 24.1.9 for Windows
Circuit: C:\users\mahrufhossain\Documents\LTspice\RC_oscillator_BJT.net
Start Time: Thu Jul 17 23:02:03 2025
solver = Normal
Maximum thread count: 8
tnom = 27
temp = 27
method = trap
WARNING: Node vout is floating.

Direct Newton iteration for .op point succeeded.
Total elapsed time: 0.042 seconds.

Files loaded:
C:\users\mahrufhossain\Documents\LTspice\RC_oscillator_BJT.net
C:\users\mahrufhossain\AppData\Local\LTspice\lib\cmp\standard.bjt

