LTspice 24.1.9 for Windows
Circuit: C:\users\mahrufhossain\Documents\LTspice\forthorderlowpass.net
Start Time: Tue Jul 15 21:33:32 2025
solver = Normal
Maximum thread count: 8
tnom = 27
temp = 27
method = trap
Direct Newton iteration for .op point succeeded.
Total elapsed time: 0.041 seconds.

Files loaded:
C:\users\mahrufhossain\Documents\LTspice\forthorderlowpass.net
C:\users\mahrufhossain\Documents\LTspice\LM741.lib

