LTspice 24.1.9 for Windows
Circuit: C:\users\mahrufhossain\Documents\LTspice\op_amp_integrator_2.net
Start Time: Sat Jul 19 17:09:47 2025
solver = Normal
Maximum thread count: 8
tnom = 27
temp = 27
method = trap
Direct Newton iteration for .op point succeeded.
Total elapsed time: 0.052 seconds.

Files loaded:
C:\users\mahrufhossain\Documents\LTspice\op_amp_integrator_2.net
C:\users\mahrufhossain\Documents\LTspice\LM741.lib

