LTspice 24.1.9 for Windows
Circuit: C:\users\mahrufhossain\Documents\LTspice\opampintegrator.net
Start Time: Sun Jul 13 23:18:18 2025
solver = Normal
Maximum thread count: 8
tnom = 27
temp = 27
method = trap
Direct Newton iteration for .op point succeeded.
Total elapsed time: 0.128 seconds.

Files loaded:
C:\users\mahrufhossain\Documents\LTspice\opampintegrator.net
C:\users\mahrufhossain\Documents\LTspice\LM741.lib

