LTspice 24.1.9 for Windows
Circuit: C:\users\mahrufhossain\Documents\LTspice\summing_amplifier.net
Start Time: Thu Jul 10 00:29:15 2025
solver = Normal
Maximum thread count: 8
tnom = 27
temp = 27
method = trap
Direct Newton iteration for .op point succeeded.
Total elapsed time: 0.028 seconds.

Files loaded:
C:\users\mahrufhossain\Documents\LTspice\summing_amplifier.net
C:\users\mahrufhossain\Documents\LTspice\LM741.lib

