LTspice 24.1.9 for Windows
Circuit: C:\users\mahrufhossain\Documents\LTspice\zener_diode.net
Start Time: Fri Aug  1 16:00:01 2025
solver = Normal
Maximum thread count: 8
tnom = 27
temp = 27
method = trap
.OP point found by inspection.
.step r=100
.step r=1090
.step r=2080
.step r=3070
.step r=4060
.step r=5050
.step r=6040
.step r=7030
.step r=8020
.step r=9010
.step r=10000
Total elapsed time: 0.742 seconds.

Files loaded:
C:\users\mahrufhossain\Documents\LTspice\zener_diode.net
C:\users\mahrufhossain\AppData\Local\LTspice\lib\cmp\standard.dio

