LTspice 24.1.9 for Windows
Circuit: C:\users\mahrufhossain\Documents\LTspice\opamp_voltage_follower.net
Start Time: Mon Jul 14 18:19:08 2025
solver = Normal
Maximum thread count: 8
tnom = 27
temp = 27
method = trap
Direct Newton iteration for .op point succeeded.
Total elapsed time: 0.029 seconds.

Files loaded:
C:\users\mahrufhossain\Documents\LTspice\opamp_voltage_follower.net
C:\users\mahrufhossain\Documents\LTspice\LM741.lib

