LTspice 24.1.9 for Windows
Circuit: C:\users\mahrufhossain\Documents\LTspice\seriesRLC.net
Start Time: Sun Jul 13 23:24:59 2025
solver = Normal
Maximum thread count: 8
tnom = 27
temp = 27
method = trap
WARNING: Node n003 is floating.

.OP point found by inspection.
Total elapsed time: 0.022 seconds.

Files loaded:
C:\users\mahrufhossain\Documents\LTspice\seriesRLC.net

