LTspice 24.1.9 for Windows
Circuit: Z:\home\mahrufhossain\maahisfolders\circuit_designs\LtSpice_Simulations\Inverting_Comparator\inverting_comparator.net
Start Time: Fri Aug  1 18:20:59 2025
solver = Normal
Maximum thread count: 8
tnom = 27
temp = 27
method = trap
Direct Newton iteration for .op point succeeded.
Total elapsed time: 0.032 seconds.

Files loaded:
Z:\home\mahrufhossain\maahisfolders\circuit_designs\LtSpice_Simulations\Inverting_Comparator\inverting_comparator.net
C:\users\mahrufhossain\Documents\LTspice\LM741.lib

