LTspice 24.1.9 for Windows
Circuit: C:\users\mahrufhossain\Documents\LTspice\wide_band_stop.net
Start Time: Tue Jul 15 21:39:01 2025
solver = Normal
Maximum thread count: 8
tnom = 27
temp = 27
method = trap
Direct Newton iteration for .op point succeeded.
Total elapsed time: 0.040 seconds.

Files loaded:
C:\users\mahrufhossain\Documents\LTspice\wide_band_stop.net
C:\users\mahrufhossain\Documents\LTspice\LM741.lib

