LTspice 24.1.9 for Windows
Circuit: C:\users\mahrufhossain\Documents\LTspice\parallelRLCAC.net
Start Time: Sun Jul 13 20:20:29 2025
solver = Normal
Maximum thread count: 8
tnom = 27
temp = 27
method = trap
.OP point found by inspection.
Total elapsed time: 0.019 seconds.

Files loaded:
C:\users\mahrufhossain\Documents\LTspice\parallelRLCAC.net

