LTspice 24.1.9 for Windows
Circuit: C:\users\mahrufhossain\Documents\LTspice\transformers.net
Start Time: Thu Jul 24 21:44:32 2025
solver = Normal
Maximum thread count: 8
tnom = 27
temp = 27
method = trap
.OP point found by inspection.
Total elapsed time: 0.030 seconds.

Files loaded:
C:\users\mahrufhossain\Documents\LTspice\transformers.net

