LTspice 24.1.9 for Windows
Circuit: C:\users\mahrufhossain\Documents\LTspice\rc_integreator.net
Start Time: Sat Jul  5 13:51:32 2025
solver = Normal
Maximum thread count: 8
tnom = 27
temp = 27
method = trap
Per .tran options, skipping operating point for transient analysis.
Total elapsed time: 0.046 seconds.

Files loaded:
C:\users\mahrufhossain\Documents\LTspice\rc_integreator.net

