LTspice 24.1.9 for Windows
Circuit: C:\users\mahrufhossain\Documents\LTspice\schmitt_trigger_circuit.net
Start Time: Tue Jul 15 14:01:06 2025
solver = Normal
Maximum thread count: 8
tnom = 27
temp = 27
method = trap
Direct Newton iteration for .op point succeeded.
Total elapsed time: 0.047 seconds.

Files loaded:
C:\users\mahrufhossain\Documents\LTspice\schmitt_trigger_circuit.net
C:\users\mahrufhossain\Documents\LTspice\LM741.lib

