LTspice 24.1.9 for Windows
Circuit: Z:\home\mahrufhossain\LTspice\creating_center_tapped.net
Start Time: Thu Aug 14 15:35:32 2025
solver = Normal
Maximum thread count: 8
tnom = 27
temp = 27
method = trap
.OP point found by inspection.
Total elapsed time: 0.030 seconds.

Files loaded:
Z:\home\mahrufhossain\LTspice\creating_center_tapped.net

