LTspice 24.1.9 for Windows
Circuit: C:\users\mahrufhossain\Documents\LTspice\bjt_RC_oscillator.net
Start Time: Fri Jul 18 01:23:45 2025
solver = Normal
Maximum thread count: 8
tnom = 27
temp = 27
method = trap
WARNING: Node vout is floating.

Direct Newton iteration for .op point succeeded.
Total elapsed time: 0.041 seconds.

Files loaded:
C:\users\mahrufhossain\Documents\LTspice\bjt_RC_oscillator.net
C:\users\mahrufhossain\AppData\Local\LTspice\lib\cmp\standard.bjt

