LTspice 24.1.9 for Windows
Circuit: Z:\home\mahrufhossain\maahisfolders\circuit_designs\LtSpice_Simulations\full_wave_rectifier\full_wave_rectifier.net
Start Time: Sat Aug  2 17:45:45 2025
solver = Normal
Maximum thread count: 8
tnom = 27
temp = 27
method = trap
.OP point found by inspection.
Total elapsed time: 0.047 seconds.

Files loaded:
Z:\home\mahrufhossain\maahisfolders\circuit_designs\LtSpice_Simulations\full_wave_rectifier\full_wave_rectifier.net
C:\users\mahrufhossain\AppData\Local\LTspice\lib\cmp\standard.dio

