LTspice 24.1.9 for Windows
Circuit: C:\users\mahrufhossain\Documents\LTspice\full_wave_rectifier.net
Start Time: Thu Jul 10 01:42:34 2025
solver = Normal
Maximum thread count: 8
tnom = 27
temp = 27
method = trap
Direct Newton iteration failed to find .op point.  (Use ".option noopiter" to skip.)
Starting Gmin stepping
Gmin = 10
Gmin = 1.07374
vernier = 0.5
vernier = 0.25
vernier = 0.125
vernier = 0.0625
Gmin = 1.08884
vernier = 0.03125
vernier = 0.015625
Gmin = 1.03122
vernier = 0.0078125
vernier = 0.00390625
Gmin = 1.01823
vernier = 0.00520833
vernier = 0.00260417
Gmin = 1.01162
vernier = 0.00347222
vernier = 0.00173611
vernier = 0.000868055
Gmin = 1.00899
vernier = 0.00115741
vernier = 0.000578703
Gmin = 1.0071
vernier = 0.000771604
vernier = 0.000578703
Gmin = 1.00579
vernier = 0.000771604
vernier = 0.000578703
vernier = 0.000434027
Gmin = 1.00499
vernier = 0.000578703
vernier = 0.000434027
Gmin = 0
Gmin stepping failed

Starting source stepping with srcstepmethod=0
Source Step = 3.0303%
Source Step = 33.3333%
Source Step = 63.6364%
Source Step = 93.9394%
vernier = 0.25
Source Step = 93.1818%
Source Step = 95.0758%
Source Step = 96.9697%
Source Step = 98.8636%
Source stepping succeeded in finding the operating point.

Total elapsed time: 0.137 seconds.

Files loaded:
C:\users\mahrufhossain\Documents\LTspice\full_wave_rectifier.net
C:\users\mahrufhossain\AppData\Local\LTspice\lib\cmp\standard.dio
C:\users\mahrufhossain\Documents\LTspice\LM741.lib

