LTspice 24.1.9 for Windows
Circuit: C:\users\mahrufhossain\Documents\LTspice\wide_bandpass_first_order.net
Start Time: Tue Jul 15 21:36:53 2025
solver = Normal
Maximum thread count: 8
tnom = 27
temp = 27
method = trap
Direct Newton iteration for .op point succeeded.
Total elapsed time: 0.041 seconds.

Files loaded:
C:\users\mahrufhossain\Documents\LTspice\wide_bandpass_first_order.net
C:\users\mahrufhossain\Documents\LTspice\LM741.lib

