LTspice 24.1.9 for Windows
Circuit: C:\users\mahrufhossain\Documents\LTspice\first_order_active_low_pass.net
Start Time: Thu Jul 17 12:09:13 2025
solver = Normal
Maximum thread count: 8
tnom = 27
temp = 27
method = trap
Direct Newton iteration for .op point succeeded.
Total elapsed time: 0.036 seconds.

Files loaded:
C:\users\mahrufhossain\Documents\LTspice\first_order_active_low_pass.net
C:\users\mahrufhossain\Documents\LTspice\LM741.lib

