LTspice 24.1.9 for Windows
Circuit: C:\users\mahrufhossain\Documents\LTspice\non_inverting_closed_loop.net
Start Time: Sat Jul  5 22:10:44 2025
solver = Normal
Maximum thread count: 8
tnom = 27
temp = 27
method = trap
Direct Newton iteration for .op point succeeded.
Total elapsed time: 0.024 seconds.

Files loaded:
C:\users\mahrufhossain\Documents\LTspice\non_inverting_closed_loop.net
C:\users\mahrufhossain\Documents\LTspice\LM741.lib

