LTspice 24.1.9 for Windows
Circuit: C:\users\mahrufhossain\Documents\LTspice\pulsetosinewavegen.net
Start Time: Sat Jul  5 13:54:10 2025
solver = Normal
Maximum thread count: 8
tnom = 27
temp = 27
method = trap
Direct Newton iteration for .op point succeeded.
Total elapsed time: 0.163 seconds.

Files loaded:
C:\users\mahrufhossain\Documents\LTspice\pulsetosinewavegen.net

