LTspice 24.1.9 for Windows
Circuit: C:\users\mahrufhossain\Documents\LTspice\current_mirros.net
Start Time: Fri Jun 27 22:59:21 2025
solver = Normal
Maximum thread count: 8
tnom = 27
temp = 27
method = trap
Direct Newton iteration for .op point succeeded.
Total elapsed time: 0.030 seconds.

Files loaded:
C:\users\mahrufhossain\Documents\LTspice\current_mirros.net
C:\users\mahrufhossain\AppData\Local\LTspice\lib\cmp\standard.bjt

