LTspice 24.1.9 for Windows
Circuit: C:\users\mahrufhossain\Documents\LTspice\colpitts_oscillator_using_BJT.net
Start Time: Fri Jul 18 00:30:26 2025
solver = Normal
Maximum thread count: 8
tnom = 27
temp = 27
method = trap
WARNING: Node n005 is floating.

Direct Newton iteration for .op point succeeded.
Total elapsed time: 0.037 seconds.

Files loaded:
C:\users\mahrufhossain\Documents\LTspice\colpitts_oscillator_using_BJT.net
C:\users\mahrufhossain\AppData\Local\LTspice\lib\cmp\standard.bjt

