LTspice 24.1.9 for Windows
Circuit: Z:\home\mahrufhossain\LTspice\transformer_coupled_class_A.net
Start Time: Thu Aug 14 12:14:04 2025
solver = Normal
Maximum thread count: 8
tnom = 27
temp = 27
method = trap
WARNING: Node n001 is floating.

Direct Newton iteration for .op point succeeded.
Total elapsed time: 0.067 seconds.

Files loaded:
Z:\home\mahrufhossain\LTspice\transformer_coupled_class_A.net
C:\users\mahrufhossain\AppData\Local\LTspice\lib\cmp\standard.bjt
Z:\home\mahrufhossain\LTspice\BD135.lib

