LTspice 24.1.9 for Windows
Circuit: C:\users\mahrufhossain\Documents\LTspice\diff_amp_op_amp.net
Start Time: Thu Jul  3 22:01:28 2025
solver = Normal
Maximum thread count: 8
tnom = 27
temp = 27
method = trap
Direct Newton iteration for .op point succeeded.
Total elapsed time: 0.063 seconds.

Files loaded:
C:\users\mahrufhossain\Documents\LTspice\diff_amp_op_amp.net
C:\users\mahrufhossain\Documents\LTspice\LM741.lib

