LTspice 24.1.9 for Windows
Circuit: Z:\home\mahrufhossain\maahisfolders\circuit_designs\LtSpice_Simulations\Voltage_Follwer_OpAmp\opamp_voltage_follower.net
Start Time: Fri Aug  1 19:17:11 2025
solver = Normal
Maximum thread count: 8
tnom = 27
temp = 27
method = trap
