LTspice 24.1.9 for Windows
Circuit: Z:\home\mahrufhossain\LTspice\power_amp_AB.net
Start Time: Thu Aug 14 22:05:53 2025
solver = Normal
Maximum thread count: 8
tnom = 27
temp = 27
method = trap
Direct Newton iteration for .op point succeeded.
Total elapsed time: 0.099 seconds.

Files loaded:
Z:\home\mahrufhossain\LTspice\power_amp_AB.net
C:\users\mahrufhossain\AppData\Local\LTspice\lib\cmp\standard.dio
C:\users\mahrufhossain\AppData\Local\LTspice\lib\cmp\standard.bjt
Z:\home\mahrufhossain\LTspice\BD135.lib
Z:\home\mahrufhossain\LTspice\BD136.lib
C:\users\mahrufhossain\Documents\LTspice\split_supply.lib

