LTspice 24.1.9 for Windows
Circuit: C:\users\mahrufhossain\Documents\LTspice\constant_current_using_zener_diode.net
Start Time: Fri Jun 27 23:42:16 2025
solver = Normal
Maximum thread count: 8
tnom = 27
temp = 27
method = trap
.step V2=1 
.step V2=2 
.step V2=3 
.step V2=4 
.step V2=5 
.step V2=6 
.step V2=7 
.step V2=8 
.step V2=9 
.step V2=10 
.step V2=11 
.step V2=12 
.step V2=13 
.step V2=14 
.step V2=15 
.step V2=16 
.step V2=17 
.step V2=18 
.step V2=19 
.step V2=20 
Total elapsed time: 0.289 seconds.

Files loaded:
C:\users\mahrufhossain\Documents\LTspice\constant_current_using_zener_diode.net
C:\users\mahrufhossain\AppData\Local\LTspice\lib\cmp\standard.dio
C:\users\mahrufhossain\AppData\Local\LTspice\lib\cmp\standard.bjt

