LTspice 24.1.9 for Windows
Circuit: C:\users\mahrufhossain\Documents\LTspice\constant_current.net
Start Time: Fri Jun 27 22:55:58 2025
solver = Normal
Maximum thread count: 8
tnom = 27
temp = 27
method = trap
Direct Newton iteration for .op point succeeded.
Total elapsed time: 7.491 seconds.

Files loaded:
C:\users\mahrufhossain\Documents\LTspice\constant_current.net
C:\users\mahrufhossain\AppData\Local\LTspice\lib\cmp\standard.bjt

