LTspice 24.1.9 for Windows
Circuit: C:\users\mahrufhossain\Documents\LTspice\understanding_loading.net
Start Time: Fri Aug  1 14:59:21 2025
solver = Normal
Maximum thread count: 8
tnom = 27
temp = 27
method = trap
Direct Newton iteration for .op point succeeded.
Total elapsed time: 1.369 seconds.

Files loaded:
C:\users\mahrufhossain\Documents\LTspice\understanding_loading.net

