LTspice 24.1.9 for Windows
Circuit: C:\users\mahrufhossain\Documents\LTspice\Opampdifferentiator.net
Start Time: Thu Jul 10 01:11:49 2025
solver = Normal
Maximum thread count: 8
tnom = 27
temp = 27
method = trap
Direct Newton iteration for .op point succeeded.
Total elapsed time: 1.789 seconds.

Files loaded:
C:\users\mahrufhossain\Documents\LTspice\Opampdifferentiator.net
C:\users\mahrufhossain\Documents\LTspice\LM741.lib

