LTspice 24.1.9 for Windows
Circuit: C:\users\mahrufhossain\Documents\LTspice\open_loop_gain.net
Start Time: Thu Jul  3 15:08:17 2025
solver = Normal
Maximum thread count: 8
tnom = 27
temp = 27
method = trap
Direct Newton iteration for .op point succeeded.
Total elapsed time: 2.194 seconds.

Files loaded:
C:\users\mahrufhossain\Documents\LTspice\open_loop_gain.net
C:\users\mahrufhossain\Documents\LTspice\LM741.lib

