LTspice 24.1.9 for Windows
Circuit: C:\users\mahrufhossain\Documents\LTspice\wien_bridge_osc_using_opamp.net
Start Time: Fri Jul 18 01:19:06 2025
solver = Normal
Maximum thread count: 8
tnom = 27
temp = 27
method = trap
Direct Newton iteration for .op point succeeded.
Total elapsed time: 0.165 seconds.

Files loaded:
C:\users\mahrufhossain\Documents\LTspice\wien_bridge_osc_using_opamp.net
C:\users\mahrufhossain\Documents\LTspice\LM741.lib

