LTspice 24.1.9 for Windows
Circuit: C:\users\mahrufhossain\Documents\LTspice\bjt_02.net
Start Time: Fri Jul 18 01:10:28 2025
solver = Normal
Maximum thread count: 8
tnom = 27
temp = 27
method = trap
Direct Newton iteration for .op point succeeded.
Total elapsed time: 0.039 seconds.

Files loaded:
C:\users\mahrufhossain\Documents\LTspice\bjt_02.net
C:\users\mahrufhossain\AppData\Local\LTspice\lib\cmp\standard.bjt

