LTspice 24.1.9 for Windows
Circuit: C:\users\mahrufhossain\Documents\LTspice\bjt_amp.net
Start Time: Thu Jul 17 23:02:58 2025
solver = Normal
Maximum thread count: 8
tnom = 27
temp = 27
method = trap
Direct Newton iteration for .op point succeeded.
Total elapsed time: 0.040 seconds.

Files loaded:
C:\users\mahrufhossain\Documents\LTspice\bjt_amp.net
C:\users\mahrufhossain\AppData\Local\LTspice\lib\cmp\standard.bjt

