LTspice 24.1.9 for Windows
Circuit: C:\users\mahrufhossain\Documents\LTspice\hartley_oscillatorBJT.net
Start Time: Fri Jul 18 16:27:57 2025
solver = Normal
Maximum thread count: 8
tnom = 27
temp = 27
method = trap
Direct Newton iteration for .op point succeeded.
Total elapsed time: 0.073 seconds.

Files loaded:
C:\users\mahrufhossain\Documents\LTspice\hartley_oscillatorBJT.net
C:\users\mahrufhossain\AppData\Local\LTspice\lib\cmp\standard.bjt

